[General]
network = Network

sim-time-limit = 200s

**.ospf.ospfConfig = xmldoc("ASConfig.xml")

*.PC*.numApps = 1
*.PC*.app[0].typename = "PingApp"

*.PC1.app[0].destAddr = "192.168.3.11"
*.PC1.app[0].sendInterval = 1s  
*.PC1.app[0].startTime = 0.2s

*.PC5.app[0].destAddr = "192.168.4.10"
*.PC5.app[0].sendInterval = 1s  
*.PC5.app[0].startTime = 0.4s

*.PC2.app[0].destAddr = "192.168.2.2"
*.PC2.app[0].sendInterval = 1s  
*.PC2.app[0].startTime = 0.6s



